12
Properties=species:S:1:pos:R:3:forces:R:3 charge=0 spin=0 energy=-6318.1806640625 free_energy=-6318.1806640625 pbc="F F F"
C        0.00131051       1.40896138      -0.02503630       0.00765015      -0.00203089       0.00015981
C        1.21932317       0.69870573      -0.01853105      -0.00025630       0.00519180       0.00383221
C        1.22160157      -0.70596847      -0.01138154       0.01608589      -0.00818056       0.01479817
C        0.00145010      -1.40196831      -0.00906207      -0.00774466      -0.00572519       0.00443508
C       -1.21260018      -0.69971811      -0.01664432       0.00311511      -0.01562399      -0.00836895
C       -1.21772461       0.70578260      -0.02192769      -0.00381325       0.01776657      -0.01124781
H       -0.01539278       2.50178008       0.01948284      -0.00564257       0.00468795      -0.00413324
H        2.17086417       1.23860062       0.01441779       0.00437867      -0.00150495       0.01258961
H        2.16552331      -1.25303411       0.01862908      -0.00500984       0.00302544       0.01661145
H        0.00093105      -2.49430882       0.01192756       0.00314958      -0.00051029       0.00267229
H       -2.16346486      -1.23506354       0.01212445      -0.00663126       0.00624822      -0.01387956
H       -2.17182144       1.23623096       0.02600124      -0.00528155      -0.00334401      -0.01746904
